0.0 0.9 2.8 291.6 0.0118 100369.4
10.0 0.9 2.8 291.5 0.0118
20.0 -0.4 5.0 291.6 0.0118
35.0 -2.3 5.0 291.7 0.0116
52.0 0.9 6.6 292.3 0.0115
70.0 -1.2 6.3 293.2 0.0100
95.0 -2.1 7.1 293.0 0.0115
144.0 0.0 -0.0 291.1 0.0106
434.0 0.0 -0.0 294.6 0.0075
724.0 0.0 -0.0 296.4 0.0039
1014.0 0.0 -0.0 298.7 0.0018
1303.0 0.0 -0.0 301.3 0.0009
1593.0 0.0 -0.0 303.5 0.0007
1883.0 0.0 -0.0 305.5 0.0008
2173.0 0.0 -0.0 307.7 0.0013
2463.0 0.0 -0.0 310.3 0.0021
2752.0 -10.8 -0.7 312.7 0.0030
3042.0 -9.1 -1.0 314.9 0.0037
3332.0 -5.8 -2.1 317.1 0.0045
3622.0 -2.5 -2.9 319.2 0.0050
3911.0 0.8 -3.5 321.3 0.0051
4201.0 3.6 -4.1 323.1 0.0051
4491.0 6.5 -4.1 324.9 0.0049
4781.0 8.8 -4.4 326.8 0.0044
5071.0 10.8 -4.6 328.6 0.0040
5360.0 11.5 -5.1 330.4 0.0035
5650.0 12.3 -5.2 332.2 0.0031
5940.0 13.0 -5.5 334.0 0.0028
7099.0 5.5 -5.5 340.8 0.0016
8258.0 12.9 -4.4 347.3 0.0008
9417.0 16.6 -5.3 353.1 0.0003
