0.0 -0.1 8.0 293.0 0.0140 102280.6
10.0 -0.1 8.6 291.0 0.0140
20.0 -4.0 12.3 290.9 0.0139
35.0 1.1 14.3 290.6 0.0139
52.0 -4.0 14.2 290.8 0.0142
70.0 2.1 15.8 251.6 0.0004
95.0 3.2 17.7 290.5 0.0142
110.9 -4.5 -3.7 292.4 0.0124
323.4 -9.6 -6.0 293.0 0.0117
540.3 -13.3 -5.9 294.2 0.0108
762.0 -15.7 -4.7 296.4 0.0099
988.5 -15.0 -4.4 297.9 0.0101
1220.2 -12.5 -4.2 299.4 0.0114
1457.3 -9.1 -3.2 301.5 0.0123
1700.1 -5.4 -1.6 304.0 0.0127
1949.0 -2.9 -0.7 305.9 0.0124
2204.2 -2.0 -1.6 307.3 0.0118
2466.2 -0.9 -3.2 308.9 0.0113
3012.2 2.2 -6.0 312.6 0.0104
3590.7 7.0 -6.5 316.9 0.0097
4206.4 11.3 -6.7 320.3 0.0081
4865.2 13.8 -7.1 324.1 0.0058
5574.4 15.0 -6.5 328.3 0.0040
6343.6 17.7 -5.8 332.6 0.0022
7185.4 19.5 -5.1 337.5 0.0018
8117.3 26.5 -6.0 343.0 0.0006
9164.0 27.3 -5.9 346.9 0.0002
10362.9 27.4 -4.4 350.0 0.0001
11037.1 28.6 -3.7 352.6 0.0001
11784.0 30.6 -2.6 355.8 0.0000
12630.9 32.4 -1.0 358.0 0.0000
13608.4 31.2 1.8 358.8 0.0000
14764.6 31.3 -3.3 363.8 0.0000
16179.7 20.7 -11.1 385.7 0.0000
18441.6 2.7 0.1 430.5 0.0000
20576.2 -2.1 -9.5 487.8 0.0000
23848.6 -7.4 -5.8 597.0 0.0000
26481.2 -4.3 0.9 684.8 0.0000
31054.6 -3.8 -2.9 864.2 0.0000
33452.6 -6.3 2.5 979.9 0.0000
35776.6 -12.0 -0.2 1108.3 0.0000
39429.5 -26.0 -0.1 1341.8 0.0000
42439.9 -31.9 5.6 1539.1 0.0000
47820.1 -33.4 3.4 1890.8 0.0000
